lib/t/t_psse_case4.raw
@!IC, SBASE,REV,XFRRAT,NXFRAT,BASFRQ
0, 100.00, 34, 0, 1, 50.00 / PSS(R)E-34.9
Rev 34 header and switching-device test
Minimal RAW case for psse2mpc
GENERAL, THRSHZ=0.0001
RATING, 1, "RATE1 ", "RATING SET 1"
0 / END OF SYSTEM-WIDE DATA, BEGIN BUS DATA
@!   I,'NAME        ', BASKV, IDE,AREA,ZONE,OWNER, VM,        VA,    NVHI,   NVLO,   EVHI,   EVLO
1,'BUS1        ', 230.0000,3,   1,   1,   1,1.00000,   0.0000,1.10000,0.90000,1.10000,0.90000
2,'BUS2        ', 230.0000,1,   1,   1,   1,1.00000,   0.0000,1.10000,0.90000,1.10000,0.90000
0 / END OF BUS DATA, BEGIN LOAD DATA
@!   I,'ID',STAT,AREA,ZONE,      PL,        QL,        IP,        IQ,        YP,        YQ, OWNER,SCALE,INTRPT,  DGENP,     DGENQ, DGENF
0 / END OF LOAD DATA, BEGIN FIXED SHUNT DATA
@!   I,'ID',STATUS,  GL,        BL
0 / END OF FIXED SHUNT DATA, BEGIN GENERATOR DATA
@!   I,'ID',      PG,        QG,        QT,        QB,     VS,    IREG,     MBASE,     ZR,         ZX,         RT,         XT,     GTAP,STAT, RMPCT,      PT,        PB,    O1,    F1
1,'1 ',     0.000,     0.000,   100.000,  -100.000,1.00000,     1,   100.000, 0.00000E+0, 0.00000E+0, 0.00000E+0, 0.00000E+0,1.00000,1,  100.0,   100.000,     0.000,   1,1.0000
0 / END OF GENERATOR DATA, BEGIN BRANCH DATA
@!   I,     J,'CKT',     R,          X,         B,                    'N A M E'                 ,   RATE1,   RATE2,   RATE3,   RATE4,   RATE5,   RATE6,   RATE7,   RATE8,   RATE9,  RATE10,  RATE11,  RATE12,    GI,       BI,       GJ,       BJ,STAT,MET,  LEN,  O1,  F1
1,2,'1 ', 1.00000E-02, 5.00000E-02,   0.10000,'LINE1                                   ',  100.00,   90.00,   80.00,    0.00,    0.00,    0.00,    0.00,    0.00,    0.00,    0.00,    0.00,    0.00,  0.00000,  0.00000,  0.00000,  0.00000,1,1,  10.00,   1,1.0000
0 / END OF BRANCH DATA, BEGIN SYSTEM SWITCHING DEVICE DATA
@!   I,     J,'CKT',          X,   RATE1,   RATE2,   RATE3,   RATE4,   RATE5,   RATE6,   RATE7,   RATE8,   RATE9,  RATE10,  RATE11,  RATE12, STAT,NSTAT,  MET,STYPE,'NAME'
1,2,'@1', 1.00000E-4,   70.00,   60.00,   50.00,    0.00,    0.00,    0.00,    0.00,    0.00,    0.00,    0.00,    0.00,    0.00,    1,    1,    1,    2,'SW1                                     '
0 / END OF SYSTEM SWITCHING DEVICE DATA, BEGIN TRANSFORMER DATA
@!   I,     J,     K,'CKT',CW,CZ,CM,     MAG1,        MAG2,NMETR,               'N A M E',               STAT,O1,  F1,    O2,  F2,    O3,  F3,    O4,  F4,     'VECGRP', ZCOD
1,2,0,'TX',1,2,1,   0.00000,   0.00000,1,'ZERO NOMV XFMR',1
0.00000, 0.10000, 100.00
1.00000, 0.000, 0.000, 120.00, 120.00, 120.00, 0, 0, 1.10000, 0.90000, 1.10000, 0.90000, 33, 0, 0.00000, 0.00000
1.00000, 0.000
0 / END OF TRANSFORMER DATA, BEGIN AREA DATA
@! I,   ISW,     PDES,      PTOL,    'ARNAME'
0 / END OF AREA DATA, BEGIN TWO-TERMINAL DC DATA
@!  'NAME',   MDC,     RDC,      SETVL,     VSCHD,     VCMOD,     RCOMP,    DELTI,METER    DCVMIN,CCCITMX, CCCACC
@! IPR,NBR,ANMXR,ANMNR,   RCR,    XCR,  EBASR,  TRR,    TAPR,   TMXR,   TMNR,   STPR,    ICR,   IFR,   ITR,'IDR', XCAPR,NDR
@! IPI,NBI,ANMXI,ANMNI,   RCI,    XCI,  EBASI,  TRI,    TAPI,   TMXI,   TMNI,   STPI,    ICI,   IFI,   ITI,'IDI', XCAPI,NDI
0 / END OF TWO-TERMINAL DC DATA, BEGIN VSC DC LINE DATA
@!  'NAME',   MDC,     RDC,   O1,  F1
0 / END OF VSC DC LINE DATA, BEGIN IMPEDANCE CORRECTION DATA
@!I,   T1,    Re(F1),  Im(F1)
0 / END OF IMPEDANCE CORRECTION DATA, BEGIN MULTI-TERMINAL DC DATA
@!  'NAME',    NCONV,NDCBS,NDCLN,  MDC, VCONV,     VCMOD, VCONVN
0 / END OF MULTI-TERMINAL DC DATA, BEGIN MULTI-SECTION LINE DATA
@!   I,     J,'ID',MET,DUM1,  DUM2
0 / END OF MULTI-SECTION LINE DATA, BEGIN ZONE DATA
@! I,   'ZONAME'
0 / END OF ZONE DATA, BEGIN INTER-AREA TRANSFER DATA
@!ARFROM,ARTO,'TRID', PTRAN
0 / END OF INTER-AREA TRANSFER DATA, BEGIN OWNER DATA
@! I,   'OWNAME'
0 / END OF OWNER DATA, BEGIN FACTS DEVICE DATA
@!  'NAME',         I,     J,MODE,   PDES,      QDES,  VSET,      SHMX,      TRMX,   VTMN,   VTMX,   VSMX,      IMX,     LINX,   RMPCT,OWNER,    SET1,      SET2,VSREF, FCREG,   'MNAME'    ,NREG
0 / END OF FACTS DEVICE DATA, BEGIN SWITCHED SHUNT DATA
@!  I,MODSW,ADJM,ST, VSWHI,  VSWLO, SWREG,  RMPCT,   'RMIDNT',      BINIT,N1,     B1, NREG
2,  1,  0,  1,1.05000,0.95000,     2,  100.0,'            ',   12.50, 1,   12.50, 0
1,  0,  0,  0,1.00000,1.00000,     1,  100.0,'            ',  -99.00, 1,  -99.00, 0
0 / END OF SWITCHED SHUNT DATA, BEGIN GNE DATA
@!  'NAME',        'MODEL',     NTERM,BUS1...BUSNTERM,NREAL,NINTG,NCHAR
0 / END OF GNE DATA, BEGIN INDUCTION MACHINE DATA
@!   I,'ID',ST,SC,DC,AREA,ZONE,OWNER,TC,BC,  MBASE, RATEKV,PC
0 / END OF INDUCTION MACHINE DATA, BEGIN SUBSTATION DATA
0 / END OF SUBSTATION DATA
